Circuit: * C:\Users\Lukas\Desktop\Nueva carpeta\Draft1.asc

Fatal Error: Multiple instances of "V+"
