Circuit: * C:\Users\Lukas\Desktop\Nueva carpeta\LtSpice.asc

WARNING: Node NC_01 is floating.

WARNING: Less than two connections to node VIN.  This node is used by V1.
WARNING: Less than two connections to node NC_01.  This node is used by C11.
Early termination of direct N-R iteration.
Direct Newton iteration failed to find .op point.  (Use ".option noopiter" to skip.)
Starting Gmin stepping
Gmin = 10
vernier = 0.5
vernier = 0.25
vernier = 0.125
Gmin = 5.5165
vernier = 0.0625
vernier = 0.03125
vernier = 0.015625
vernier = 0.0078125
Gmin = 5.48432
vernier = 0.00390625
vernier = 0.00195313
vernier = 0.000976563
vernier = 0.000488281
Gmin = 0
Gmin stepping failed

Starting source stepping with srcstepmethod=0
Source Step = 3.0303%
Source Step = 33.3333%
Source Step = 63.6364%
Source Step = 93.9394%
Source stepping succeeded in finding the operating point.


Date: Mon Jul 26 21:51:36 2021
Total elapsed time: 0.119 seconds.

tnom = 27
temp = 27
method = modified trap
totiter = 1811
traniter = 162
tranpoints = 82
accept = 82
rejected = 0
matrix size = 55
fillins = 166
solver = Normal
Matrix Compiler1: 13.88 KB object code size  2.2/1.0/[0.6]
Matrix Compiler2: 7.53 KB object code size  1.3/1.4/[0.3]

