Circuit: * C:\Users\Lukas\Desktop\Nueva carpeta\Parcial.asc

Direct Newton iteration for .op point succeeded.

Date: Wed Jul 28 16:09:56 2021
Total elapsed time: 0.048 seconds.

tnom = 27
temp = 27
method = trap
totiter = 4
traniter = 0
tranpoints = 0
accept = 0
rejected = 0
matrix size = 10
fillins = 2
solver = Normal
Matrix Compiler1:      26 opcodes
Matrix Compiler2: 848 bytes object code size
