Circuit: * C:\Users\Lukas\Desktop\Nueva carpeta\Punto6.asc

Direct Newton iteration for .op point succeeded.

Date: Wed Jul 28 09:04:07 2021
Total elapsed time: 0.035 seconds.

tnom = 27
temp = 27
method = trap
totiter = 4
traniter = 0
tranpoints = 0
accept = 0
rejected = 0
matrix size = 10
fillins = 1
solver = Normal
Matrix Compiler1:      30 opcodes
Matrix Compiler2: 830 bytes object code size
